LTspice 24.0.12 for Windows
Circuit: * C:\Users\HP\Desktop\AVE\AVE2\Electronics, Signals and Measurement\Lab_05_RLC\1stOrderLP.asc
Start Time: Wed May 22 10:13:36 2024
solver = Normal
Maximum thread count: 12



trtol = 1
.OP point found by inspection.
.step rvar=0.25



.step rvar=0.5



.step rvar=0.75
tnom = 27
temp = 27
method = trap
.step rvar=1
Total elapsed time: 0.137 seconds.

