LTspice 24.0.12 for Windows
Circuit: * C:\Users\HP\Desktop\AVE\AVE2\Electronics, Signals and Measurement\Lab_05_RLC\Draft5.asc
Start Time: Wed May 22 10:06:56 2024
solver = Normal
Maximum thread count: 12



trtol = 1
.OP point found by inspection.
.step rvar=1e-09



.step rvar=0.500000001



.step rvar=1.000000001



.step rvar=1.500000001
tnom = 27
temp = 27
method = trap
.step rvar=2
Total elapsed time: 0.184 seconds.

