LTspice 24.0.12 for Windows
Circuit: * C:\Users\HP\Desktop\AVE\AVE2\Electronics, Signals and Measurement\Lab_05_RLC\RLC_excited_AC.asc
Start Time: Wed May 29 08:54:30 2024
solver = Normal
Maximum thread count: 12



trtol = 1
.OP point found by inspection.
.step r=1



.step r=2
tnom = 27
temp = 27
method = trap
.step r=3
Total elapsed time: 0.095 seconds.

