LTspice 24.0.12 for Windows
Circuit: * C:\Users\HP\Desktop\AVE\AVE2\Electronics, Signals and Measurement\Lab_05_RLC\Switched_L.asc
Start Time: Wed May 29 06:16:38 2024
solver = Normal
Maximum thread count: 12



trtol = 1
Direct Newton iteration for .op point succeeded.
.step d=0.1



.step d=0.2



.step d=0.3



.step d=0.4
tnom = 27
temp = 27
method = trap
.step d=0.5
Total elapsed time: 11.051 seconds.

